42
mobley_2725215
C            3.44800000000000        3.60600000000000       -0.02900000000000
C            3.63400000000000        2.84500000000000       -1.33400000000000
C            2.61900000000000        1.72200000000000       -1.51100000000000
N            2.80100000000000        1.00900000000000       -2.74500000000000
C            2.71000000000000        1.74800000000000       -4.00900000000000
C            1.34600000000000        2.38000000000000       -4.17900000000000
C            1.20600000000000        3.15800000000000       -5.48000000000000
C            3.07700000000000       -0.36900000000000       -2.76700000000000
C            4.39700000000000       -0.81700000000000       -2.73800000000000
C            4.67100000000000       -2.18500000000000       -2.76000000000000
C            3.62300000000000       -3.10500000000000       -2.80900000000000
C            2.30200000000000       -2.65700000000000       -2.83800000000000
C            2.02900000000000       -1.28900000000000       -2.81600000000000
N            0.67100000000000       -0.86200000000000       -2.84700000000000
O            0.12700000000000       -0.65700000000000       -3.95700000000000
O            0.06300000000000       -0.70400000000000       -1.76300000000000
S            3.96600000000000       -4.81700000000000       -2.83300000000000
O            5.27100000000000       -5.02200000000000       -2.22100000000000
O            2.80700000000000       -5.53700000000000       -2.32300000000000
C            4.10400000000000       -5.21500000000000       -4.56100000000000
N            5.48700000000000        0.09700000000000       -2.68600000000000
O            5.91800000000000        0.46200000000000       -1.56700000000000
O            5.98100000000000        0.51000000000000       -3.76100000000000
H            4.19100000000000        4.40400000000000        0.06900000000000
H            2.45400000000000        4.06300000000000        0.00200000000000
H            3.53800000000000        2.94200000000000        0.83700000000000
H            4.64300000000000        2.41500000000000       -1.34800000000000
H            3.56900000000000        3.54700000000000       -2.17300000000000
H            2.72200000000000        0.99300000000000       -0.70200000000000
H            1.59400000000000        2.10700000000000       -1.49500000000000
H            2.90600000000000        1.01600000000000       -4.78700000000000
H            3.51100000000000        2.48000000000000       -3.99300000000000
H            0.60100000000000        1.57600000000000       -4.17000000000000
H            1.11900000000000        3.04300000000000       -3.33600000000000
H            0.20800000000000        3.60000000000000       -5.56600000000000
H            1.93900000000000        3.97000000000000       -5.51300000000000
H            1.37600000000000        2.51600000000000       -6.34900000000000
H            5.69900000000000       -2.53900000000000       -2.73800000000000
H            1.48800000000000       -3.37700000000000       -2.87600000000000
H            4.31800000000000       -6.27600000000000       -4.63300000000000
H            3.15500000000000       -4.96900000000000       -5.02700000000000
H            4.91300000000000       -4.61800000000000       -4.96800000000000
