17
mobley_5857
C            0.13000000000000        2.09800000000000       -0.45300000000000
C           -0.54700000000000        0.89800000000000       -0.27400000000000
C           -1.93200000000000        0.84400000000000       -0.44600000000000
C           -2.66800000000000        1.97200000000000       -0.79700000000000
C           -1.97500000000000        3.18800000000000       -0.97700000000000
C           -0.58100000000000        3.24200000000000       -0.80400000000000
C           -2.71500000000000        4.32400000000000       -1.33000000000000
C           -4.09000000000000        4.23800000000000       -1.49400000000000
C           -4.68000000000000        3.00600000000000       -1.29600000000000
N           -4.00300000000000        1.88600000000000       -0.95500000000000
H            1.20700000000000        2.14300000000000       -0.32200000000000
H            0.00000000000000        0.00000000000000       -0.00100000000000
H           -2.43900000000000       -0.10800000000000       -0.30000000000000
H           -0.04200000000000        4.17600000000000       -0.94100000000000
H           -2.22400000000000        5.28200000000000       -1.48100000000000
H           -4.67800000000000        5.10600000000000       -1.76800000000000
H           -5.75200000000000        2.87800000000000       -1.41100000000000
